<?xml version="1.0"?>
<trips>
<trip id="0" depart="0.00" from="2764559#1" to="2764559#3"/>
</trips>