<?xml version="1.0"?>
<trips>
<trip id="0" depart="0.00" from="80294614" to="95904332#11"/>
</trips>