<?xml version="1.0" encoding="iso-8859-1"?>
<configuration xmlns:xsi="http://www.w3.org/2001/XMLSchema-instance" xsi:noNamespaceSchemaLocation="http://sumo.sf.net/xsd/sumoConfiguration.xsd">
<input>
<net-file value="map.net.xml"/>
<route-files value="map.rou.xml"/>
</input>
<time>
<begin value="0"/>
<!--<end value="100"/> //no end time given - for the simulation of all teh trips-->
<step-length value="1"/>
</time>
<fcd-output.geo value="true"/>
<!--
<no-duration-log value="true"/>
<no-step-log value="true"/>
</report>
-->
</configuration>
